# generated using pymatgen
data_Si
_symmetry_space_group_name_H-M   'P 1'
_cell_length_a   3.86697465
_cell_length_b   5.46872800
_cell_length_c   30.93579723
_cell_angle_alpha   90.00000000
_cell_angle_beta   90.00000000
_cell_angle_gamma   90.00000000
_symmetry_Int_Tables_number   1
_chemical_formula_structural   Si
_chemical_formula_sum   Si16
_cell_volume   654.21268558
_cell_formula_units_Z   16
loop_
 _symmetry_equiv_pos_site_id
 _symmetry_equiv_pos_as_xyz
  1  'x, y, z'
loop_
 _atom_site_type_symbol
 _atom_site_label
 _atom_site_symmetry_multiplicity
 _atom_site_fract_x
 _atom_site_fract_y
 _atom_site_fract_z
 _atom_site_occupancy
  Si  Si1  1  0.000000  0.998846  0.875117  1
  Si  Si2  1  0.000000  0.983218  0.993074  1
  Si  Si3  1  0.000000  0.250137  0.812525  1
  Si  Si4  1  0.000000  0.256913  0.936774  1
  Si  Si5  1  0.500000  0.493087  0.936774  1
  Si  Si6  1  0.500000  0.499863  0.812525  1
  Si  Si7  1  0.500000  0.766782  0.993074  1
  Si  Si8  1  0.500000  0.751154  0.875117  1
  Si  Si9  1  0.000000  0.993087  0.625726  1
  Si  Si10  1  0.000000  0.999863  0.749975  1
  Si  Si11  1  0.000000  0.266782  0.569426  1
  Si  Si12  1  0.000000  0.251154  0.687383  1
  Si  Si13  1  0.500000  0.498846  0.687383  1
  Si  Si14  1  0.500000  0.483218  0.569426  1
  Si  Si15  1  0.500000  0.750137  0.749975  1
  Si  Si16  1  0.500000  0.756913  0.625726  1
